Circuit: * C:\Users\Manas\AppData\Local\LTspice\aec project\quad osc 2.asc

WARNING: Node VSINE is floating.
WARNING: Node VCOS is floating.

WARNING: Less than two connections to node vsine.  This node is used by c4.
WARNING: Less than two connections to node vcos.  This node is used by c5.
Early termination of direct N-R iteration.
Direct Newton iteration failed to find .op point.  (Use ".option noopiter" to skip.)
Starting Gmin stepping
Gmin = 10
vernier = 0.5
vernier = 0.25
vernier = 0.125
Gmin = 5.5165
vernier = 0.0625
vernier = 0.03125
vernier = 0.015625
vernier = 0.0078125
Gmin = 5.49501
vernier = 0.00390625
vernier = 0.00195312
vernier = 0.000976562
vernier = 0.000488281
Gmin = 5.50104
Gmin = 0
Gmin stepping failed

Starting source stepping with srcstepmethod=0
Source Step = 3.0303%
Source Step = 33.3333%
Source Step = 63.6364%
Source Step = 93.9394%
Source stepping succeeded in finding the operating point.


Date: Thu Apr 18 02:28:40 2024
Total elapsed time: 0.384 seconds.

tnom = 27
temp = 27
method = modified trap
totiter = 15336
traniter = 13673
tranpoints = 4557
accept = 3231
rejected = 1326
matrix size = 57
fillins = 258
solver = Normal
Avg thread counts: 1.2/1.6/1.5/1.2
Matrix Compiler1: 23.36 KB object code size  4.3/3.0/[2.4]
Matrix Compiler2: 9.19 KB object code size  0.9/0.9/[0.5]

