Circuit: * C:\Users\Manas\AppData\Local\LTspice\aec project\switch(mixer) design.asc

Ignoring BSIM parameter XL
Ignoring BSIM parameter XW
Direct Newton iteration for .op point succeeded.

Date: Wed Apr 17 23:41:08 2024
Total elapsed time: 0.178 seconds.

tnom = 27
temp = 27
method = modified trap
totiter = 11005
traniter = 11000
tranpoints = 4761
accept = 3063
rejected = 1698
matrix size = 8
fillins = 0
solver = Normal
Avg thread counts: 1.2/1.6/1.6/1.2
Matrix Compiler1: 264 bytes object code size  0.4/0.3/[0.3]
Matrix Compiler2: off  [0.2]/0.4/0.2

